# Packages
 &PACKAGES
 useGMRedi          = .TRUE.,
 useGGL90           = .TRUE.,
 useSALT_PLUME      = .TRUE.,
 useDiagnostics     = .TRUE.,
 useSEAICE          = .TRUE.,
 &
