# Packages
 &PACKAGES
 useCAL         = .TRUE.,
 useEXF         = .FALSE.,
 useSEAICE      = .TRUE.,
 useKPP         = .TRUE.,
# useGMRedi      = .TRUE.,
 useFRAZIL      = .FALSE.,
 useDiagnostics     = .TRUE.,
 useMYPACKAGE = .TRUE.,
 &
