#
# *******************
# Calendar Parameters
# *******************
 &CAL_NML
 TheCalendar='gregorian',
 startDate_1=20120206,
 startDate_2=210000,
 calendarDumps = .TRUE.,
 &
