
EXPID:  TEST
EXPDSC: TEST
EXPSRC: Heracles-5_3


COLLECTIONS: 'geosgcm_prog'
             'geosgcm_surf'
             'mit_ocn'
             'mit_ice'
             'mit_ice_all'
             'mit_snow_all'
#             'geosgcm_moist'
#             'geosgcm_turb'
#             'geosgcm_gwd'
#             'geosgcm_tend'
#             'geosgcm_budi'
#             'geosgcm_buda'
#             'geosgcm_landice'
#             'geosgcm_meltwtr'
#             'geosgcm_snowlayer'
#             'geosgcm_tracer'
#             'geosgcm_iau'
#             'geosgcm_lidar'
#             'geosgcm_parasol'
#             'geosgcm_modis'
#             'geosgcm_radar'
#             'geosgcm_isccp'
#             'geosgcm_misr'
             ::

  mit_ocn.template:  '%y4%m2%d2_%h2%n2z.nc4',
  mit_ocn.archive:   '%c/Y%y4',
  mit_ocn.format: 'CFIO',
  mit_ocn.frequency:  010000, ##  the format is:  HHMMSS
# if you prefer output on the "native" MIT cubed-sphere grid,
# comment out the next 3 line (but lat and lon metadata will be wrong)
  mit_ocn.regrid_name: 'PE12x144-CF'  # this HAS to match the ATM gridname
  mit_ocn.regrid_exch: 'tile.bin',
  mit_ocn.regrid_nx: 1,
  mit_ocn.regrid_ny: 6,
  mit_ocn.resolution: 48 25,
  mit_ocn.fields: 'US'  , 'MIT',
  		  'VS'  , 'MIT',
  		  'TS'  , 'MIT',
  		  'SS'  , 'MIT',
  		  'MIT_3D_MASK', 'MIT', 'MASK',
# we should put more exports once they are enabled in MIT plug
# next are some "mirrored" imports
  		  'TAUX', 'MIT',
  		  'TAUY', 'MIT',
  		  'PS'  , 'MIT',
  		  'SWHEAT', 'MIT',
  		  'QFLX', 'MIT',
  		  'HFLX', 'MIT',
  		  'SFLX', 'MIT',
                  'SI','MIT',
                  'HI','MIT',
                  'DEL_SI','MIT',
                  'DEL_HI','MIT',
                  'WGHT','MIT'
# we could put more exports once they are enabled in MIT plug
		  ::

  mit_ice.template:  '%y4%m2%d2_%h2%n2z.nc4',
  mit_ice.archive:   '%c/Y%y4',
  mit_ice.format: 'CFIO',
  mit_ice.frequency:  010000, ##  the format is:  HHMMSS
  mit_ice.regrid_name: 'PE12x144-CF'  # this HAS to match the ATM gridname
  mit_ice.regrid_exch: 'tile.bin',
  mit_ice.regrid_nx: 1,
  mit_ice.regrid_ny: 6,
  mit_ice.resolution: 48 25,
  mit_ice.fields: 'FRACICE'  , 'MIT',
                  'TI'       , 'MIT',
                  'VOLICE'       , 'MIT',
                  'VOLSNO'       , 'MIT',
                  'MPOND'       , 'MIT',
                  'TAUAGE'       , 'MIT',
                  'DEL_FRACICE'  , 'MIT',
                  'DEL_TI'       , 'MIT',
                  'DEL_VOLICE'       , 'MIT',
                  'DEL_VOLSNO'       , 'MIT',
                  'DEL_MPOND'       , 'MIT',
                  'DEL_TAUAGE'       , 'MIT',
                  ::

  mit_ice_all.template:  '%y4%m2%d2_%h2%n2z.nc4',
  mit_ice_all.archive:   '%c/Y%y4',
  mit_ice_all.format: 'CFIO',
  mit_ice_all.frequency:  010000, ##  the format is:  HHMMSS
  mit_ice_all.regrid_name: 'PE12x144-CF'  # this HAS to match the ATM gridname
  mit_ice_all.regrid_exch: 'tile.bin',
  mit_ice_all.resolution: 48 25,
  mit_ice_all.regrid_nx: 1,
  mit_ice_all.regrid_ny: 6,
  mit_ice_all.fields: 'ERGICE'  , 'MIT',
                      'DEL_ERGICE'  , 'MIT',
                  ::

  mit_snow_all.template:  '%y4%m2%d2_%h2%n2z.nc4',
  mit_snow_all.archive:   '%c/Y%y4',
  mit_snow_all.format: 'CFIO',
  mit_snow_all.frequency:  010000, ##  the format is:  HHMMSS
  mit_snow_all.regrid_name: 'PE12x144-CF'  # this HAS to match the ATM gridname
  mit_snow_all.regrid_exch: 'tile.bin',
  mit_snow_all.regrid_nx: 1,
  mit_snow_all.regrid_ny: 6,
  mit_snow_all.resolution: 48 25,
  mit_snow_all.fields: 'ERGSNO'  , 'MIT',
                       'DEL_ERGSNO'  , 'MIT',
                  ::

  geosgcm_prog.template:  '%y4%m2%d2_%h2%n2z.nc4',
  geosgcm_prog.archive:   '%c/Y%y4',
  geosgcm_prog.format:    'CFIO',
  geosgcm_prog.frequency:  060000,
  geosgcm_prog.resolution: 48 25,
  geosgcm_prog.vscale:     100.0,
  geosgcm_prog.vunit:     'hPa',
  geosgcm_prog.vvars:     'log(PLE)' , 'DYN'          ,
  geosgcm_prog.levels:     1000 975 950 925 900 875 850 825 800 775 750 725 700 650 600 550 500 450 400 350 300 250 200 150 100 70 50 40 30 20 10 7 5 4 3 2 1 0.7 0.5 0.4 0.3 0.2 0.1 0.07 0.05 0.04 0.03 0.02,
  geosgcm_prog.fields:    'PHIS'     , 'AGCM'         ,
                          'SLP'      , 'DYN'          ,
                          'U;V'      , 'DYN'          ,
                          'T'        , 'DYN'          ,
                          'PS'       , 'DYN'          ,
                          'ZLE'      , 'DYN'          , 'H'   ,
                          'OMEGA'    , 'DYN'          ,
                          'Q'        , 'MOIST'        , 'QV'  ,
                          'QITOT'    , 'AGCM'         , 'QI'  ,
                          'QLTOT'    , 'AGCM'         , 'QL'  ,
                          'RH2'      , 'MOIST'        , 'RH'  ,
                          'O3'       , 'CHEMISTRY'    ,
                          ::

  geosgcm_surf.template:  '%y4%m2%d2_%h2%n2z.nc4',
  geosgcm_surf.archive:   '%c/Y%y4',
  geosgcm_surf.format:    'CFIO',
  geosgcm_surf.mode:      'time-averaged',
  geosgcm_surf.frequency:  030000,
  geosgcm_surf.ref_time:   210000,
  geosgcm_surf.resolution: 48 25,
  geosgcm_surf.fields:    'PHIS'          , 'AGCM'     ,
                          'SGH'           , 'AGCM'     ,
                          'VARFLT'        , 'AGCM'     ,
                          'TROPP_EPV'     , 'AGCM'     ,  'TROPPV' ,
                          'TROPP_THERMAL' , 'AGCM'     ,  'TROPPT' ,
                          'TROPP_BLENDED' , 'AGCM'     ,  'TROPPB' ,
                          'TROPT'         , 'AGCM'     ,
                          'TROPQ'         , 'AGCM'     ,
                          'QVFILL'   , 'AGCM'          ,
                          'OXFILL'   , 'AGCM'          ,
                          'TA'       , 'DYN'           ,
                          'QA'       , 'DYN'           ,
                          'US;VS'    , 'DYN'           ,
                          'PS'       , 'DYN'           ,
                          'SPEED'    , 'DYN'           ,
                          'ZPBL'     , 'TURBULENCE'    ,  'PBLH'   ,
                          'TS'       , 'SURFACE'       ,
                          'QS'       , 'SURFACE'       ,
                          'THAT'     , 'SURFACE'       ,
                          'QHAT'     , 'SURFACE'       ,
                          'RASTIME'  , 'MOIST'         ,
                          'RASPBLQ'  , 'MOIST'         ,
                          'CN_PRCP'  , 'MOIST'         , 'CNPRCP' ,
                          'LS_PRCP'  , 'MOIST'         , 'LSPRCP' ,
                          'AN_PRCP'  , 'MOIST'         , 'ANPRCP' ,
                          'SNO'      , 'MOIST'         ,
                          'PLS'      , 'MOIST'         ,
                          'PCU'      , 'MOIST'         ,
                          'LWP'      , 'MOIST'         ,
                          'CCWP'     , 'MOIST'         ,
                          'TAUTT'    , 'SOLAR'         ,
                          'TAULO'    , 'SOLAR'         ,
                          'TAUMD'    , 'SOLAR'         ,
                          'TAUHI'    , 'SOLAR'         ,
                          'CLDTT'    , 'SOLAR'         ,
                          'CLDLO'    , 'SOLAR'         ,
                          'CLDMD'    , 'SOLAR'         ,
                          'CLDHI'    , 'SOLAR'         ,
                          'SPLAND'   , 'SURFACE'       ,
                          'SPWATR'   , 'SURFACE'       ,
                          'RUNSURF'  , 'SURFACE'       , 'RUNOFF' ,
                          'BASEFLOW' , 'SURFACE'       ,
                          'EMIS'     , 'SURFACE'       ,
                          'CT'       , 'SURFACE'       ,
                          'CQ'       , 'SURFACE'       ,
                          'CN'       , 'SURFACE'       ,
                          'CM'       , 'SURFACE'       ,
                          'RI'       , 'SURFACE'       , 'RISFC' ,
                          'LAI'      , 'SURFACE'       ,
                          'GRN'      , 'SURFACE'       ,
                          'SNOMAS'   , 'SURFACE'       ,
                          'ITY'      , 'SURFACE'       , 'VEGTYPE' ,
                          'WET1'     , 'SURFACE'       ,
                          'WET2'     , 'SURFACE'       ,
                          'WET3'     , 'SURFACE'       ,
                          'TSOIL1'   , 'SURFACE'       ,
                          'TSOIL2'   , 'SURFACE'       ,
                          'FRLAND'   , 'SURFACE'       ,
                          'FRLANDICE', 'SURFACE'       ,
                          'FRLAKE'   , 'SURFACE'       ,
                          'FRACI'    , 'SURFACE'       , 'FRSEAICE' ,
                          'FROCEAN'  , 'SURFACE'       ,
                          'USTAR'    , 'SURFACE'       ,
                          'Z0'       , 'SURFACE'       ,
                          'Z0H'      , 'SURFACE'       ,
                          'LHFX'     , 'SURFACE'       ,
                          'SH'       , 'SURFACE'       , 'SHFX'     ,
                          'EVAP'     , 'SURFACE'       ,
                          'TAUX;TAUY', 'SURFACE'       ,
                          'RHOS'     , 'SURFACE'       ,
                          'U2M;V2M'  , 'SURFACE'       ,
                          'T2M'      , 'SURFACE'       ,
                          'Q2M'      , 'SURFACE'       ,
                          'U10N;V10N', 'SURFACE'       ,
                          'U10M;V10M', 'SURFACE'       ,
                          'T10M'     , 'SURFACE'       ,
                          'Q10M'     , 'SURFACE'       ,
                          'U50M;V50M', 'SURFACE'       ,
                          'GUST'     , 'SURFACE'       ,
                          'VENT'     , 'SURFACE'       ,
                          'ASNOW'    , 'SURFACE'       ,
                          'RADSRF'   , 'RADIATION'     ,
                          'FLNS'      , 'IRRAD'        ,
                          'FLNSC'     , 'IRRAD'        ,
                          'FLNSA'     , 'IRRAD'        , 'FLNSCNA'   ,
                          'OLR'       , 'IRRAD'        ,
                          'OLC'       , 'IRRAD'        , 'OLRC'      ,
                          'OLA'       , 'IRRAD'        , 'OLRCNA'    ,
                          'LWS'       , 'IRRAD'        ,
                          'LCS'       , 'IRRAD'        , 'LWSC'      ,
                          'LAS'       , 'IRRAD'        , 'LWSCNA'    ,
                          'SFCEM'     , 'IRRAD'        ,
                          'CLDTMP'    , 'SOLAR'        , 'SWCLDTMP'  ,
                          'CLDPRS'    , 'SOLAR'        , 'SWCLDPRS'  ,
                          'OSR'       , 'SOLAR'        ,
                          'OSRCLR'    , 'SOLAR'        ,
                          'RSR'       , 'SOLAR'        , 'SWTNET'    ,
                          'RSC'       , 'SOLAR'        , 'SWTNETC'   ,
                          'RSCNA'     , 'SOLAR'        , 'SWTNETCNA' ,
                          'RSRNA'     , 'SOLAR'        , 'SWTNETNA'  ,
                          'SLRTP'     , 'SOLAR'        , 'RADSWT'    ,
                          'SLRSF'     , 'SOLAR'        , 'SWGDWN'    ,
                          'SLRSFC'    , 'SOLAR'        , 'SWGDWNC'   ,
                          'RSRS'      , 'SOLAR'        , 'SWGNET'    ,
                          'RSCS'      , 'SOLAR'        , 'SWGNETC'   ,
                          'RSRSNA'    , 'SOLAR'        , 'SWGNETNA'  ,
                          'RSCSNA'    , 'SOLAR'        , 'SWGNETCNA' ,
                          'ALBEDO'    , 'SOLAR'        ,
                          'ALBVR'     , 'SOLAR'        ,
                          'ALBVF'     , 'SOLAR'        ,
                          'ALBNR'     , 'SOLAR'        ,
                          'ALBNF'     , 'SOLAR'        ,
                          'EVLAND'    , 'SURFACE'      ,
                          'LHLAND'    , 'SURFACE'      ,
                          'SHLAND'    , 'SURFACE'      ,
                          'SWLAND'    , 'SURFACE'      ,
                          'LWLAND'    , 'SURFACE'      ,
                          'GHLAND'    , 'SURFACE'      ,
                          'SMLAND'    , 'SURFACE'      ,
                          'TWLAND'    , 'SURFACE'      ,
                          'TELAND'    , 'SURFACE'      ,
# additonal exports for skin SST
                          'EVAPOUT'  , 'SURFACE'  ,
                          'COSZ'     , 'SOLAR'    ,
                          'DCOOL'    , 'SURFACE'  ,
                          'DWARM'    , 'SURFACE'  ,
                          'TDROP'    , 'SURFACE'  , 'DELT_COOL' ,
                          'TS_FOUND' , 'SURFACE'  , 'BULK_SST' ,
                          'TDEL'     , 'SURFACE'  ,
                          'BCOOL'    , 'SURFACE'  ,
                          'LCOOL'    , 'SURFACE'  ,
                          'TBAR'     , 'SURFACE'  ,
                          'USTARW'   , 'SURFACE'  ,
                          'SWCOOL'   , 'SURFACE'  ,
                          'QCOOL'    , 'SURFACE'  ,
                          'DELTS'    , 'SURFACE'  ,
                          'QWARM'    , 'SURFACE'  ,
                          'SWWARM'   , 'SURFACE'  ,
                          'LANGM'    , 'SURFACE'  ,
                          'PHIW'     , 'SURFACE'  ,
                          'TAUTW'    , 'SURFACE'  ,
                          'ZETA_W'   , 'SURFACE'  ,
#                          'CNLAI'    , 'SURFACE'  ,
#                          'CNTLAI'   , 'SURFACE'  ,
#                          'CNSAI'    , 'SURFACE'  ,
#                          'CNTOTC'   , 'SURFACE'  ,
#                          'CNVEGC'   , 'SURFACE'  ,
#                          'CNROOT'   , 'SURFACE'  ,
#                          'CNNPP'    , 'SURFACE'  ,
#                          'CNGPP'    , 'SURFACE'  ,
#                          'CNSR'     , 'SURFACE'  ,
#                          'CNNEE'    , 'SURFACE'  ,
#                          'CNXSMR'   , 'SURFACE'  ,
#                          'CNADD'    , 'SURFACE'  ,
#                          'PARABS'   , 'SURFACE'  ,
#                          'PARINC'   , 'SURFACE'  ,
#                          'SCSAT'    , 'SURFACE'  ,
#                          'SCUNS'    , 'SURFACE'  ,
#                          'BTRANT'   , 'SURFACE'  , 'BTRAN'     ,
#                          'SIF'      , 'SURFACE'  , 
#                          'CNLOSS'   , 'SURFACE'  , 'CLOSS'     ,
#                          'CNBURN'   , 'SURFACE'  , 'BURN'      ,
#                          'CNFSEL'   , 'SURFACE'  , 'FSEL'      ,
#                          'EVPICE'   , 'SURFACE'  ,
#                          'EVPSNO'   , 'SURFACE'  ,
#                          'EVPINT'   , 'SURFACE'  ,
#                          'EVPSOI'   , 'SURFACE'  ,
#                          'EVPVEG'   , 'SURFACE'  ,
#                          'FRSAT'    , 'SURFACE'  ,
#                          'FRUST'    , 'SURFACE'  ,
#                          'FRWLT'    , 'SURFACE'  ,
#                          'TPSAT'    , 'SURFACE'  ,
#                          'TPUNST'   , 'SURFACE'  ,
#                          'TPWLT'    , 'SURFACE'  ,
#                          'TPSURF'   , 'SURFACE'  , 'TSURF'     ,
#                          'GHTSKIN'  , 'SURFACE'  ,
#                          'WAT10CM'  , 'SURFACE'  ,
#                          'WATSOI'   , 'SURFACE'  ,
#                          'ICESOI'   , 'SURFACE'  ,
                          ::

  geosgcm_meltwtr.template:  '%y4%m2%d2_%h2%n2z.nc4',
  geosgcm_meltwtr.archive:   '%c/Y%y4',
  geosgcm_meltwtr.format:    'CFIO',
  geosgcm_meltwtr.mode:      'time-averaged',
  geosgcm_meltwtr.frequency:  240000,
  geosgcm_meltwtr.ref_time:   210000,
  geosgcm_meltwtr.regrid_name: 'PE12x72-CF'
  geosgcm_meltwtr.regrid_exch: 'tile.bin',
  geosgcm_meltwtr.resolution: 48 25,
  geosgcm_meltwtr.fields:    'MELTWTR'      , 'LANDICE'     ,
                             ::

  geosgcm_landice.template:  '%y4%m2%d2_%h2%n2z.nc4',
  geosgcm_landice.archive:   '%c/Y%y4',
  geosgcm_landice.format:    'CFIO',
  geosgcm_landice.mode:      'time-averaged',
  geosgcm_landice.frequency:  240000,
  geosgcm_landice.ref_time:   210000,
  geosgcm_landice.regrid_name: 'PE12x72-CF'
  geosgcm_landice.regrid_exch: 'tile.bin',
  geosgcm_landice.resolution: 48 25,
  geosgcm_landice.fields:    'SNOMAS_GL'     , 'LANDICE'     ,
                             'SNOWDP_GL'     , 'LANDICE'     ,
                             'TST'           , 'LANDICE'     ,
                             'ASNOW_GL'      , 'LANDICE'     ,
                             'RUNOFF'        , 'LANDICE'     ,
                             'WESNSC'        , 'LANDICE'     ,
                             'SNDZSC'        , 'LANDICE'     ,
                             'WESNPREC'      , 'LANDICE'     ,
                             'SNDZPREC'      , 'LANDICE'     ,
                             'SNDZ1PERC'     , 'LANDICE'     ,
                             'WESNBOT'       , 'LANDICE'     ,
                             'IMELT'         , 'LANDICE'     ,
                             'SNOWALB'       , 'LANDICE'     ,
                             'SNICEALB'      , 'LANDICE'     ,
                             'ACCUM'         , 'LANDICE'     ,
                             'RAINRFZ'       , 'LANDICE'     ,
                             'SHOUT'         , 'LANDICE'     ,
                             'HLATN'         , 'LANDICE'     ,
                             'HLWUP'         , 'LANDICE'     ,
                             'LWNDSRF'       , 'LANDICE'     ,
                             'SWNDSRF'       , 'LANDICE'     ,
                             ::

  geosgcm_snowlayer.template:  '%y4%m2%d2_%h2%n2z.nc4',
  geosgcm_snowlayer.archive:   '%c/Y%y4',
  geosgcm_snowlayer.format:    'CFIO',
  geosgcm_snowlayer.mode:      'time-averaged',
  geosgcm_snowlayer.frequency:  240000,
  geosgcm_snowlayer.ref_time:   210000,
  geosgcm_snowlayer.regrid_name: 'PE12x72-CF'
  geosgcm_snowlayer.regrid_exch: 'tile.bin',
  geosgcm_snowlayer.resolution: 48 25,
  geosgcm_snowlayer.fields:    'RHOSNOW'       , 'LANDICE'     ,
                               'TSNOW'         , 'LANDICE'     ,
                               'WSNOW'         , 'LANDICE'     ,
                               'ZSNOW'         , 'LANDICE'     ,
                               'DRHOS0'        , 'LANDICE'     ,
                               'WESNEX'        , 'LANDICE'     ,
                               'WESNPERC'      , 'LANDICE'     ,
                               'WESNDENS'      , 'LANDICE'     ,
                               'WESNREPAR'     , 'LANDICE'     ,
                               'TICE0'         , 'LANDICE'     ,
                               ::

  geosgcm_moist.template:  '%y4%m2%d2_%h2%n2z.nc4',
  geosgcm_moist.archive:   '%c/Y%y4',
  geosgcm_moist.format:    'CFIO',
  geosgcm_moist.mode:      'time-averaged',
  geosgcm_moist.frequency:  240000,
  geosgcm_moist.ref_time:   210000,
  geosgcm_moist.resolution: 48 25,
  geosgcm_moist.vscale:     100.0,
  geosgcm_moist.vunit:     'hPa',
  geosgcm_moist.vvars:     'log(PLE)' , 'DYN'          ,
  geosgcm_moist.levels:     1000 975 950 925 900 875 850 825 800 775 750 725 700 650 600 550 500 450 400 350 300 250 200 150 100 70 50 40 30 20 10 7 5 4 3 2 1 0.7 0.5 0.4 0.3 0.2 0.1 0.07 0.05 0.04 0.03 0.02,
  geosgcm_moist.fields:    'PHIS'    , 'AGCM'          ,
                           'QL'      , 'MOIST'         ,
                           'QI'      , 'MOIST'         ,
                           'QR'      , 'MOIST'         ,
                           'RI'      , 'MOIST'         , 'RICE'   ,
                           'RL'      , 'MOIST'         , 'RLIQ'   ,
                           'RH1'     , 'MOIST'         ,
                           'CNV_MF0' , 'MOIST'         , 'CNVMF0' ,
                           'CNV_MFD' , 'MOIST'         , 'CNVMFD' ,
                           'CNV_MFC' , 'MOIST'         , 'CNVMFC' ,
                           'REV_CN'  , 'MOIST'         , 'REVCN'  ,
                           'REV_AN'  , 'MOIST'         , 'REVAN'  ,
                           'REV_LS'  , 'MOIST'         , 'REVLS'  ,
                           'RSU_CN'  , 'MOIST'         , 'RSUCN'  ,
                           'RSU_AN'  , 'MOIST'         , 'RSUAN'  ,
                           'RSU_LS'  , 'MOIST'         , 'RSULS'  ,
                           'THIM'    , 'PHYSICS'       ,
                           'EVAPC'   , 'MOIST'         ,
                           'SUBLC'   , 'MOIST'         ,
                           'FCLD'    , 'MOIST'         ,
                           'CLCN'    , 'MOIST'         ,
                           'CLLS'    , 'MOIST'         ,
                           'QICN'    , 'MOIST'         ,
                           'QILS'    , 'MOIST'         ,
                           'QLCN'    , 'MOIST'         ,
                           'QLLS'    , 'MOIST'         ,
                           ::

  geosgcm_turb.template:  '%y4%m2%d2_%h2%n2z.nc4',
  geosgcm_turb.archive:   '%c/Y%y4',
  geosgcm_turb.format:    'CFIO',
  geosgcm_turb.mode:      'time-averaged',
  geosgcm_turb.frequency:  240000,
  geosgcm_turb.ref_time:   210000,
  geosgcm_turb.resolution: 48 25,
  geosgcm_turb.vscale:     100.0,
  geosgcm_turb.vunit:     'hPa',
  geosgcm_turb.vvars:     'log(PLE)' , 'DYN'          ,
  geosgcm_turb.levels:     1000 975 950 925 900 875 850 825 800 775 750 725 700 650 600 550 500 450 400 350 300 250 200 150 100 70 50 40 30 20 10 7 5 4 3 2 1 0.7 0.5 0.4 0.3 0.2 0.1 0.07 0.05 0.04 0.03 0.02,
  geosgcm_turb.fields:    'INTDIS'   , 'TURBULENCE'    ,
                          'TOPDIS'   , 'TURBULENCE'    ,
                          'SRFDIS'   , 'TURBULENCE'    ,
                          'DBUOY'    , 'TURBULENCE'    ,
                          'WERAD'    , 'TURBULENCE'    ,
                          'KH'       , 'TURBULENCE'    ,
                          'KM'       , 'TURBULENCE'    ,
                          'KHLS'     , 'TURBULENCE'    ,
                          'KMLS'     , 'TURBULENCE'    ,
                          'EKH'      , 'TURBULENCE'    ,
                          'EKM'      , 'TURBULENCE'    ,
                          'KHSFC'    , 'TURBULENCE'    ,
                          'KHRAD'    , 'TURBULENCE'    ,
                          'RI'       , 'TURBULENCE'    ,
                          'DU'       , 'TURBULENCE'    ,
                          ::

  geosgcm_gwd.template:  '%y4%m2%d2_%h2%n2z.nc4',
  geosgcm_gwd.archive:   '%c/Y%y4',
  geosgcm_gwd.format:    'CFIO',
  geosgcm_gwd.mode:      'time-averaged',
  geosgcm_gwd.frequency:  240000,
  geosgcm_gwd.ref_time:   210000,
  geosgcm_gwd.resolution: 48 25,
  geosgcm_gwd.vscale:     100.0,
  geosgcm_gwd.vunit:     'hPa',
  geosgcm_gwd.vvars:     'log(PLE)' , 'DYN'          ,
  geosgcm_gwd.levels:     1000 975 950 925 900 875 850 825 800 775 750 725 700 650 600 550 500 450 400 350 300 250 200 150 100 70 50 40 30 20 10 7 5 4 3 2 1 0.7 0.5 0.4 0.3 0.2 0.1 0.07 0.05 0.04 0.03 0.02,
  geosgcm_gwd.fields:    'DUDT_ORO;DVDT_ORO', 'GWD', 'DUDTORO;DVDTORO' ,
                         'DUDT_BKG;DVDT_BKG', 'GWD', 'DUDTBKG;DVDTBKG' ,
                         'DUDT_RAY;DVDT_RAY', 'GWD', 'DUDTRAY;DVDTRAY' ,
                         'TAUOROX;TAUOROY'  , 'GWD',
                         'TAUBKGX;TAUBKGY'  , 'GWD',
                         'DTDT_ORO',          'GWD', 'DTDTORO' ,
                         'DTDT_BKG',          'GWD', 'DTDTBKG' ,
                         'DTDT_RAY',          'GWD', 'DTDTRAY' ,
                         ::

  geosgcm_tend.template:  '%y4%m2%d2_%h2%n2z.nc4',
  geosgcm_tend.archive:   '%c/Y%y4',
  geosgcm_tend.format:    'CFIO',
  geosgcm_tend.mode:      'time-averaged',
  geosgcm_tend.frequency:  240000,
  geosgcm_tend.ref_time:   210000,
  geosgcm_tend.resolution: 48 25,
  geosgcm_tend.vscale:     100.0,
  geosgcm_tend.vunit:     'hPa',
  geosgcm_tend.vvars:     'log(PLE)' , 'DYN'          ,
  geosgcm_tend.levels:     1000 975 950 925 900 875 850 825 800 775 750 725 700 650 600 550 500 450 400 350 300 250 200 150 100 70 50 40 30 20 10 7 5 4 3 2 1 0.7 0.5 0.4 0.3 0.2 0.1 0.07 0.05 0.04 0.03 0.02,
  geosgcm_tend.fields:    'DUDTDYN;DVDTDYN', 'DYN'     ,
                          'UIT;VIT'        , 'PHYSICS' ,  'DUDTTRB;DVDTTRB' ,
                          'DUDT;DVDT'      , 'MOIST'   ,  'DUDTMST;DVDTMST' ,
                          'DUDT;DVDT'      , 'GWD'     ,  'DUDTGWD;DVDTGWD' ,
                          'DTDTDYN'  , 'DYN'           ,
                          'TIM'      , 'PHYSICS'       ,  'DTDTMST'    ,
                          'TIT'      , 'PHYSICS'       ,  'DTDTTRB'    ,
                          'TTMGW'    , 'GWD'           ,  'DTDTGWD'    ,
                          'RADLW'    , 'RADIATION'     ,  'DTDTLW'     ,
                          'RADLWC'   , 'RADIATION'     ,  'DTDTLWC'    ,
                          'RADLWCNA' , 'RADIATION'     ,  'DTDTLWCNA'  ,
                          'RADSW'    , 'RADIATION'     ,  'DTDTSW'     ,
                          'RADSWC'   , 'RADIATION'     ,  'DTDTSWC'    ,
                          'RADSWNA'  , 'RADIATION'     ,  'DTDTSWNA'   ,
                          'RADSWCNA' , 'RADIATION'     ,  'DTDTSWCNA'  ,
                          'TIF'      , 'PHYSICS'       ,  'DTDTFRI'    ,
                          'DQVDTDYN' , 'DYN'           ,
                          'DQDT'     , 'MOIST'         ,  'DQVDTMST'   ,
                          'QVIT'     , 'PHYSICS'       ,  'DQVDTTRB'   ,
                          'H2O_TEND' , 'CHEMISTRY'     ,  'DQVDTCHM'   ,
                          'DPDTPHY'  , 'PHYSICS'       ,
                          ::

  geosgcm_budi.template:    '%y4%m2%d2_%h2%n2z.nc4',
  geosgcm_budi.archive:     '%c/Y%y4',
  geosgcm_budi.format:      'CFIO',
  geosgcm_budi.conservative: 1,
  geosgcm_budi.frequency:    030000,
  geosgcm_budi.resolution:   48 25,
  geosgcm_budi.fields:      'TQV'   , 'AGCM'  ,
                            'TQI'   , 'AGCM'  ,
                            'TQL'   , 'AGCM'  ,
                            'TOX'   , 'AGCM'  ,
                            'MASS'  , 'AGCM'  ,
                             ::

  geosgcm_buda.template:    '%y4%m2%d2_%h2%n2z.nc4',
  geosgcm_buda.archive:     '%c/Y%y4',
  geosgcm_buda.format:      'CFIO',
  geosgcm_buda.mode:        'time-averaged',
  geosgcm_buda.conservative: 1,
  geosgcm_buda.frequency:    030000,
  geosgcm_buda.resolution:   48 25,
  geosgcm_buda.fields:      'DMDTDYN'       , 'DYN'         , 'DMDTDYN'     ,
                            'DMDTANA'       , 'DYN'         , 'DMDTANA'     ,
                            'DMDT'          , 'PHYSICS'     , 'DMDTPHY'     ,
                            'DQVDTDYNINT'   , 'DYN'         , 'DQVDTDYN'    ,
                            'DQVDTPHYINT'   , 'PHYSICS'     , 'DQVDTPHY'    ,
                            'DQVDTANAINT'   , 'DYN'         , 'DQVDTANA'    ,
                            'DQVDTMSTINT'   , 'PHYSICS'     , 'DQVDTMST'    ,
                            'DQVDTTRBINT'   , 'PHYSICS'     , 'DQVDTTRB'    ,
                            'DQVDTCHMINT'   , 'PHYSICS'     , 'DQVDTCHM'    ,
                            'DQLDTDYNINT'   , 'DYN'         , 'DQLDTDYN'    ,
                            'DQLDTPHYINT'   , 'PHYSICS'     , 'DQLDTPHY'    ,
                            'DQLDTANAINT'   , 'DYN'         , 'DQLDTANA'    ,
                            'DQLDTMSTINT'   , 'PHYSICS'     , 'DQLDTMST'    ,
                            'DQIDTDYNINT'   , 'DYN'         , 'DQIDTDYN'    ,
                            'DQIDTPHYINT'   , 'PHYSICS'     , 'DQIDTPHY'    ,
                            'DQIDTANAINT'   , 'DYN'         , 'DQIDTANA'    ,
                            'DQIDTMSTINT'   , 'PHYSICS'     , 'DQIDTMST'    ,
                            'DOXDTDYNINT'   , 'DYN'         , 'DOXDTDYN'    ,
                            'DOXDTPHYINT'   , 'PHYSICS'     , 'DOXDTPHY'    ,
                            'DOXDTANAINT'   , 'DYN'         , 'DOXDTANA'    ,
                            'DOXDTCHMINT'   , 'PHYSICS'     , 'DOXDTCHM'    ,
                             ::

  geosgcm_iau.template:  '%y4%m2%d2_%h2%n2z.nc4',
  geosgcm_iau.archive:   '%c/Y%y4',
  geosgcm_iau.format:    'CFIO',
  geosgcm_iau.frequency:  060000,
  geosgcm_iau.resolution: 48 25,
  geosgcm_iau.vscale:     100.0,
  geosgcm_iau.vunit:     'hPa',
  geosgcm_iau.vvars:     'log(PLE)' , 'DYN'          ,
  geosgcm_iau.levels:     1000 975 950 925 900 875 850 825 800 775 750 725 700 650 600 550 500 450 400 350 300 250 200 150 100 70 50 40 30 20 10 7 5 4 3 2 1 0.7 0.5 0.4 0.3 0.2 0.1 0.07 0.05 0.04 0.03 0.02,
  geosgcm_iau.fields:     'DUDT_ANA;DVDT_ANA' , 'AGCM'   , 'DUDTANA;DVDTANA'    ,
                          'DTDT_ANA'    , 'AGCM'         , 'DTDTANA'    ,
                          'DQVDT_ANA'   , 'AGCM'         , 'DQDTANA'    ,
                          'DMDTANA'     , 'DYN'          , 'DMDTANA'    ,
                          'VINTDIV_ANA' , 'AIAU'         ,
                          'VINTDIV_BKG' , 'AIAU'         ,
                          'VINTDIV_COR' , 'AIAU'         ,
                          'DUWINDFIX;DVWINDFIX'   , 'AIAU'         ,
                          'DTSDT_ANA'   , 'AGCM'         ,
#                         'UBKG;VBKG'   , 'AIAU'         ,
#                         'TBKG'        , 'AIAU'         ,
#                         'QVBKG'       , 'AIAU'         ,
                          ::

  geosgcm_bud.template:  '%y4%m2%d2_%h2%n2z.nc4',
  geosgcm_bud.archive:   '%c/Y%y4',
  geosgcm_bud.format:    'CFIO' ,
  geosgcm_bud.mode:      'time-averaged',
  geosgcm_bud.frequency:  240000,
  geosgcm_bud.ref_time:   210000,
  geosgcm_bud.resolution: 48 25,