 &MOM_input_nml
         output_directory = './',
         input_filename = 'r'
         restart_input_dir = 'INPUT/',
         restart_output_dir = 'RESTART/',
         parameter_filename = 'MOM_input',
                              'MOM_override' /

 &diag_manager_nml
 /

