# Packages
 &PACKAGES
 useGMRedi=.TRUE.,
 useSEAICE=.TRUE.,
 useDiagnostics=.TRUE.,
 &
