! Blank file in which we can put "overrides" for parameters
NK = 50
LAYOUT = 3, 2
#override DT = 900.0
#override DT_THERM = 900.

#override USE_REGRIDDING = True
#override BULKMIXEDLAYER = False
COORD_FILE = "Layer_coord50.nc"
USE_STORED_SLOPES = True
USE_NEUTRAL_DIFFUSION = True
SIMPLE_TKE_TO_KD = True
REGRIDDING_COORDINATE_MODE = "Z*"
ALE_COORDINATE_CONFIG = "FILE:vgrid.nc,dz"
REMAPPING_SCHEME = "PPM_H4"
HMIX_FIXED = 0.5
CFL_TRUNCATE_RAMP_TIME = 7200.
Z_INIT_ALE_REMAPPING = True
ENERGETICS_SFC_PBL = True
USE_MLD_ITERATION = False
MASS_WEIGHT_IN_PRESSURE_GRADIENT = True

VERBOSITY = 9
DEBUG = True
FATAL_UNUSED_PARAMS = True

TOPO_FILE = "ocean_topog_Edited.nc"

RESTART_CHECKSUMS_REQUIRED = False

HFREEZE = 10.0
BAD_VAL_SST_MIN = -3.0
BAD_VAL_SSS_MAX = 55.0
